Circuit: * C:\Users\manue\Documents\USM 2024 S1\ELO211 - Sistemas Digitales\TAREA 2\ACTIVIDAD 1\ELO211_CMOS_2um_Logic_Gates_Latch_FF\CMOS Gates\d_latch_mejorado.asc

Limiting rise time of source v2 to 7.7e-11
Limiting fall time of source v2 to 7.7e-11
Limiting rise time of source v3 to 3e-10
Limiting fall time of source v3 to 3e-10
Direct Newton iteration for .op point succeeded.

Date: Sat Jun 22 21:13:01 2024
Total elapsed time: 0.824 seconds.

tnom = 27
temp = 27
method = modified trap
totiter = 22465
traniter = 22439
tranpoints = 7046
accept = 5149
rejected = 1897
matrix size = 17
fillins = 0
solver = Normal
Avg thread counts: 1.1/1.4/1.4/1.1
Matrix Compiler1: 1.30 KB object code size  1.2/0.8/[0.5]
Matrix Compiler2: 1.73 KB object code size  0.8/1.2/[0.3]

