Circuit: * C:\Users\manue\Documents\USM 2024 S1\ELO211 - Sistemas Digitales\TAREA 2\ACTIVIDAD 1\ELO211_CMOS_2um_Logic_Gates_Latch_FF\CMOS Gates\d_latch_mejorado_2.asc

Limiting rise time of source v2 to 7.7e-11
Limiting fall time of source v2 to 7.7e-11
Limiting rise time of source v3 to 3e-10
Limiting fall time of source v3 to 3e-10
Direct Newton iteration for .op point succeeded.

Date: Sat Jun 22 21:52:28 2024
Total elapsed time: 1.020 seconds.

tnom = 27
temp = 27
method = modified trap
totiter = 21195
traniter = 21169
tranpoints = 6536
accept = 4833
rejected = 1703
matrix size = 17
fillins = 0
solver = Normal
Avg thread counts: 1.1/1.4/1.4/1.1
Matrix Compiler1: 1.30 KB object code size  4.5/1.3/[0.7]
Matrix Compiler2: 1.73 KB object code size  1.1/2.1/[0.5]

