Circuit: * C:\Users\manue\Documents\USM 2024 S1\ELO211 - Sistemas Digitales\TAREA 2\ACTIVIDAD 1\ELO211_CMOS_2um_Logic_Gates_Latch_FF\CMOS Gates\d_latch_mejorado_version2.asc

Direct Newton iteration for .op point succeeded.
.step tdelay=2e-09
Heightened Def Con from 3.60003e-08 to 3.60011e-08
Heightened Def Con from 9.60003e-08 to 9.60011e-08
.step tdelay=2.5e-09
.step tdelay=2.7e-09

Date: Sat Jun 22 22:41:06 2024
Total elapsed time: 6.365 seconds.

tnom = 27
temp = 27
method = modified trap
totiter = 24089
traniter = 24063
tranpoints = 7388
accept = 5627
rejected = 1762
matrix size = 17
fillins = 0
solver = Normal
Avg thread counts: 1.1/3.1/1.4/1.1
Matrix Compiler1: 1.30 KB object code size  2.0/1.2/[0.7]
Matrix Compiler2: 1.73 KB object code size  1.2/1.7/[0.6]

