Circuit: * C:\Users\manue\Documents\USM 2024 S1\ELO211 - Sistemas Digitales\TAREA 2\ACTIVIDAD 1\ELO211_CMOS_2um_Logic_Gates_Latch_FF\CMOS Gates\Draft3.asc

Direct Newton iteration for .op point succeeded.
.step tdelay=2.5e-09
.step tdelay=2.8e-09
.step tdelay=2.9e-09
.step tdelay=3e-09
.step tdelay=3.1e-09
.step tdelay=3.25e-09
.step tdelay=3.3e-09

Date: Sun Jun 23 19:12:26 2024
Total elapsed time: 5.904 seconds.

tnom = 27
temp = 27
method = modified trap
totiter = 22362
traniter = 22336
tranpoints = 7125
accept = 5568
rejected = 1557
matrix size = 20
fillins = 8
solver = Normal
Avg thread counts: 1.1/1.4/1.4/1.1
Matrix Compiler1:     123 opcodes  3.0/[1.1]/3.1
Matrix Compiler2: 2.32 KB object code size  1.0/0.9/[0.5]

