Circuit: * C:\Users\manue\Documents\USM 2024 S1\ELO211 - Sistemas Digitales\TAREA 2\ACTIVIDAD 1\ELO211_CMOS_2um_Logic_Gates_Latch_FF\CMOS Gates\Draft1.asc

Fatal Error: This circuit does not have a conduction path to ground!
   Please flag a node as ground.
