Circuit: * C:\Users\manue\Documents\USM 2024 S1\ELO211 - Sistemas Digitales\TAREA 2\ACTIVIDAD 1\ELO211_CMOS_2um_Logic_Gates_Latch_FF\CMOS Gates\latch_creado_desde_cero.asc

Direct Newton iteration for .op point succeeded.
.step tdelay=2.5e-09
.step tdelay=2.8e-09
.step tdelay=2.9e-09
.step tdelay=3e-09
.step tdelay=3.1e-09
.step tdelay=3.25e-09
.step tdelay=3.3e-09

Date: Sun Jun 23 19:19:19 2024
Total elapsed time: 7.882 seconds.

tnom = 27
temp = 27
method = modified trap
totiter = 22484
traniter = 22458
tranpoints = 7165
accept = 5600
rejected = 1565
matrix size = 20
fillins = 8
solver = Normal
Avg thread counts: 2.1/1.4/1.4/1.1
Matrix Compiler1: 2.22 KB object code size  2.4/1.4/[0.8]
Matrix Compiler2: 2.32 KB object code size  1.2/1.8/[0.6]

