Circuit: * C:\Users\manue\Documents\USM 2024 S1\ELO211 - Sistemas Digitales\TAREA 2\ACTIVIDAD 1\ELO211_CMOS_2um_Logic_Gates_Latch_FF\CMOS Gates\latch_creado_desde_cero_SETUP.asc

Direct Newton iteration for .op point succeeded.
.step tdelay=1.4e-08
.step tdelay=1.4254e-08
.step tdelay=1.4255e-08

Date: Sun Jun 23 19:22:52 2024
Total elapsed time: 1.522 seconds.

tnom = 27
temp = 27
method = modified trap
totiter = 12609
traniter = 12583
tranpoints = 4122
accept = 3315
rejected = 808
matrix size = 20
fillins = 8
solver = Normal
Avg thread counts: 1.2/1.7/1.7/1.2
Matrix Compiler1: 2.22 KB object code size  1.7/1.1/[0.7]
Matrix Compiler2: 2.32 KB object code size  1.0/1.3/[0.5]

